*Part, name=Part-6
*Node
1, 0.0250000004, 0.0
2, 0.0, 0.0
3, 0.0, -0.00100000005
4, 0.0250000004, -0.00100000005
5, 0.0250000004, 0.0500000007
6, 0.0, 0.0500000007
7, 0.0250000004, 0.050999999
8, 0.0, 0.050999999
9, 0.0237499997, 0.0
10, 0.0225000009, 0.0
11, 0.0212500002, 0.0
12, 0.0199999996, 0.0
13, 0.0187500007, 0.0
14, 0.0175000001, 0.0
15, 0.0162499994, 0.0
16, 0.0149999997, 0.0
17, 0.0137499999, 0.0
18, 0.0125000002, 0.0
19, 0.0112500004, 0.0
20, 0.00999999978, 0.0
** ... 464 like lines cut
*Element, type=CPE4
1, 1, 9, 46, 4
2, 9, 10, 45, 46
3, 10, 11, 44, 45
4, 11, 12, 43, 44
5, 12, 13, 42, 43
6, 13, 14, 41, 42
7, 14, 15, 40, 41
8, 15, 16, 39, 40
9, 16, 17, 38, 39
10, 17, 18, 37, 38
11, 18, 19, 36, 37
12, 19, 20, 35, 36
13, 20, 21, 34, 35
14, 21, 22, 33, 34
15, 22, 23, 32, 33
16, 23, 24, 31, 32
17, 24, 25, 30, 31
18, 25, 26, 29, 30
19, 26, 27, 28, 29
20, 27, 2, 3, 28
** ... 420 like lines cut
*Element, type=COH2D4 
*Nset, nset=Set-1
   1,   2,   5,   6,   9,  10,  11,  12,  13,  14,  15,  16,  17,  18,  19,  20
  21,  22,  23,  24,  25,  26,  27,  47,  48,  49,  50,  51,  52,  53,  54,  55
  56,  57,  58,  59,  60,  61,  62,  63,  64,  65,  66,  67,  68,  69,  70,  71
  72,  73,  74,  75,  76,  77,  78,  79,  80,  81,  82,  83,  84,  85,  86,  87
  88,  89,  90,  91,  92,  93,  94,  95,  96,  97,  98,  99, 100, 101, 102, 103
 123, 124, 125, 126, 127, 128, 129, 130, 131, 132, 133, 134, 135, 136, 137, 138
 139, 140, 141, 142, 143, 144, 145, 146, 147, 148, 149, 150, 151, 152, 153, 154
 155, 156, 157, 158, 159, 160, 161, 162, 163, 164, 165, 166, 167, 168, 169, 170
 171, 172, 173, 174, 175, 176, 177, 178, 179, 180, 181, 182, 183, 184, 185, 186
 187, 188, 189, 190, 191, 192, 193, 194, 195, 196, 197, 198, 199, 200, 201, 202
 203, 204, 205, 206, 207, 208, 209, 210, 211, 212, 213, 214, 215, 216, 217, 218
 219, 220, 221, 222, 223, 224, 225, 226, 227, 228, 229, 230, 231, 232, 233, 234
 235, 236, 237, 238, 239, 240, 241, 242, 243, 244, 245, 246, 247, 248, 249, 250
 251, 252, 253, 254, 255, 256, 257, 258, 259, 260, 261, 262, 263, 264, 265, 266
 267, 268, 269, 270, 271, 272, 273, 274, 275, 276, 277, 278, 279, 280, 281, 282
 283, 284, 285, 286, 287, 288, 289, 290, 291, 292, 293, 294, 295, 296, 297, 298
 299, 300, 301, 302, 303, 304, 305, 306, 307, 308, 309, 310, 311, 312, 313, 314
 315, 316, 317, 318, 319, 320, 321, 322, 323, 324, 325, 326, 327, 328, 329, 330
 331, 332, 333, 334, 335, 336, 337, 338, 339, 340, 341, 342, 343, 344, 345, 346
 347, 348, 349, 350, 351, 352, 353, 354, 355, 356, 357, 358, 359, 360, 361, 362
** ... 8 like lines cut
*Nset, nset=Set-2
   1,   2,   3,   4,   5,   6,   7,   8,   9,  10,  11,  12,  13,  14,  15,  16
  17,  18,  19,  20,  21,  22,  23,  24,  25,  26,  27,  28,  29,  30,  31,  32
  33,  34,  35,  36,  37,  38,  39,  40,  41,  42,  43,  44,  45,  46,  47,  48
  49,  50,  51,  52,  53,  54,  55,  56,  57,  58,  59,  60,  61,  62,  63,  64
  65, 104, 105, 106, 107, 108, 109, 110, 111, 112, 113, 114, 115, 116, 117, 118
 119, 120, 121, 122
*Elset, elset=Set-2
   1,   2,   3,   4,   5,   6,   7,   8,   9,  10,  11,  12,  13,  14,  15,  16
  17,  18,  19,  20, 421, 422, 423, 424, 425, 426, 427, 428, 429, 430, 431, 432
 433, 434, 435, 436, 437, 438, 439, 440
*Elset, elset=Set-1, generate
  21,  420,    1
*Elset, elset=CZE, generate
441, 440,  1
** Section: rock
*Solid Section, elset=Set-2, material=Steel
** Section: rock
*Solid Section, elset=Set-1, material=Steel
** Section: cohe
*Cohesive Section, elset=CZE, material=concrete, response=TRACTION SEPARATION
1,
*End Part
**  
**
** ASSEMBLY
**
*Assembly, name=Assembly
**  
*Instance, name=Part-6-1, part=Part-6
*End Instance
**  
*Nset, nset=Set-2, instance=Part-6-1
  3, 484,   4, 28, 29, 30, 31, 32, 33, 34, 35, 36, 37, 38, 39, 40, 41, 42, 43, 44, 45, 46,
*Nset, nset=Set-1, instance=Part-6-1
 3, 484, 
*Elset, elset=_Surf-1_S4, internal, instance=Part-6-1, generate
   1,  421,   20
*Elset, elset=_Surf-1_S3, internal, instance=Part-6-1, generate
 421,  440,    1
*Elset, elset=Set-2, instance=Part-6-1, generate
  1,  20,   1
*Elset, elset=_Surf-2_S3, internal, instance=Part-6-1, generate
 421,  440,    1
*Elset, elset=_Surf-1_S2, internal, instance=Part-6-1, generate
  20,  440,   20
*Surface, type=ELEMENT, name=Surf-1
_Surf-1_S2, S2
_Surf-1_S4, S4
_Surf-1_S3, S3
*Surface, type=ELEMENT, name=Surf-2
_Surf-2_S3, S3
*Elset, elset=Element1, instance=Part-6-1
1
*Elset, elset=Element2, instance=Part-6-1
2
*Elset, elset=Element3, instance=Part-6-1
3
*Elset, elset=Element4, instance=Part-6-1
4
*Elset, elset=Element5, instance=Part-6-1
5
*Elset, elset=Element6, instance=Part-6-1
6
*Elset, elset=Element7, instance=Part-6-1
7
*Elset, elset=Element8, instance=Part-6-1
8
*Elset, elset=Element9, instance=Part-6-1
9
*Elset, elset=Element10, instance=Part-6-1
10
*Elset, elset=Element11, instance=Part-6-1
11
*Elset, elset=Element12, instance=Part-6-1
12
*Elset, elset=Element13, instance=Part-6-1
13
*Elset, elset=Element14, instance=Part-6-1
14
*Elset, elset=Element15, instance=Part-6-1
15
*Elset, elset=Element16, instance=Part-6-1
16
*Elset, elset=Element17, instance=Part-6-1
17
*Elset, elset=Element18, instance=Part-6-1
18
*Elset, elset=Element19, instance=Part-6-1
19
*Elset, elset=Element20, instance=Part-6-1
20
** ... 840 like lines cut
*End Assembly
** 
** MATERIALS
** 
*Material, name=Steel
*Elastic
 4.6e+10, 0.2
*Material, name=cohe
*Damage Initiation, criterion=MAXS
 4e+07, 5e+07, 5e+07
*Damage Evolution, type=ENERGY
23680.,
*Elastic, type=TRACTION
 2.3e+12, 9.7e+11, 9.7e+11
*Material, name=rock
*Depvar
     28,
*User Material, constants=12
 4.6e+10,     0.186,  7.35e-13,  1.21e-10, -3.15e-11,  2.39e-12,    10000.,  1.18e+06
     0.399,        0.,        0.,        0.
** 
** INTERACTION PROPERTIES
** 
*Surface Interaction, name=IntProp-1
1.,
*Friction
0.,
*Surface Behavior, pressure-overclosure=HARD
** 
** BOUNDARY CONDITIONS
** 
** Name: BC-1 Type: Displacement/Rotation
*Boundary
Set-1, 1, 1
Set-1, 2, 2
** Name: BC-2 Type: Displacement/Rotation
*Boundary
Set-2, 2, 2
** ----------------------------------------------------------------
** 
** STEP: Step-1
** 
*Step, name=Step-1, nlgeom=YES, inc=1000000000
*Static
0.01, 1., 1e-30, 0.05
** 
** LOADS
** 
** Name: Load-1   Type: Pressure
*Dsload
Surf-1, P, 1e+07
** 
** CONTROLS
** 
*Controls, reset
*Controls, analysis=discontinuous
*Controls, parameters=time incrementation
, , , , , , , 15, , , 
** 
** OUTPUT REQUESTS
** 
*Restart, write, frequency=0
** 
** FIELD OUTPUT: F-Output-1
** 
*Output, field
*Node Output
U, 
*Element Output, directions=YES
DMICRT, E, LE, S, SDEG, SDV
** 
** HISTORY OUTPUT: H-Output-1
** 
*Output, history, variable=PRESELECT
*End Step
** ----------------------------------------------------------------
** 
** STEP: Step-2
** 
*Step, name=Step-2, nlgeom=YES, inc=1000000000
*Static, stabilize=0.0002, allsdtol=0.05, continue=NO
0.005, 1., 1e-50, 0.01
** 
** LOADS
** 
** Name: Load-2   Type: Pressure
*Dsload
Surf-2, P, 4e+07
** 
** OUTPUT REQUESTS
** 
*Restart, write, frequency=0
** 
** FIELD OUTPUT: F-Output-1
** 
*Output, field
*Node Output
U, 
*Element Output, directions=YES
DMICRT, E, LE, S, SDEG, SDV
** 
** HISTORY OUTPUT: H-Output-1
** 
*Output, history, variable=PRESELECT
*End Step
