*Heading
** Job name: Multi_path Model name: Mode_I_multi
** Generated by: Abaqus/CAE 6.12-1
*Preprint, echo=NO, model=NO, history=NO, contact=NO
**
** PARTS
**
*Part, name=Part-1
*Node
      1,   20.9752846,          15.
      2,   18.0008621,   11.3819418
      3,   15.1999998,    7.9749999
      4,    22.166666,        9.875
      5,   25.4264698,          15.
      6,           0.,          7.5
      7,    5.2249999,   8.44999981
      8,   9.97500038,   6.55000019
      9,           5.,          15.
     10,           0.,          15.
     11,   23.7583046,   3.25914645
     12,          19.,   6.55000019
     13,           0.,           0.
     14,           5.,           0.
     15,   28.4707642,           0.
     16,   28.0249996,   6.55000019
     17,          35.,   8.44999981
     18,          35.,          15.
     19,   24.2250004,   8.44999981
     20,          35.,           0.
** ... 2687 like lines cut
*Element, type=CPE4
  1,   1,  21, 355,  67
  2,  21,  22, 356, 355
  3,  22,  23, 357, 356
  4,  23,  24, 358, 357
  5,  24,  25, 359, 358
  6,  25,  26, 360, 359
  7,  26,   2, 361, 360
  8,   2,  27, 362, 361
  9,  27,  28, 363, 362
 10,  28,  29, 364, 363
 11,  29,  30, 365, 364
 12,  30,  31, 366, 365
 13,  31,  32, 367, 366
 14,  32,  33, 368, 367
 15,  33,   3,  34, 368
 16,  67, 355, 369,  66
 17, 355, 356, 370, 369
 18, 356, 357, 371, 370
 19, 357, 358, 372, 371
 20, 358, 359, 373, 372
** ... 2585 like lines cut
*Nset, nset=Set-1, generate
    1,  2707,     1
*Elset, elset=Set-1, generate
    1,  2605,     1
** Section: Section-1
*Solid Section, elset=Set-1, material=Elastic
1.,
*End Part
**  
**
** ASSEMBLY
**
*Assembly, name=Assembly
**  
*Instance, name=Part-1-1, part=Part-1
*End Instance
**  
*Nset, nset=Set-5, instance=Part-1-1
  13,  14, 184, 185, 186, 187, 188, 189, 190, 191, 192
*Elset, elset=Set-5, instance=Part-1-1
  835,  836,  837,  891,  892,  893, 1102, 1112, 1208, 1209
*Nset, nset=Set-6, instance=Part-1-1
   9,  10, 128, 129, 130, 131, 132, 133, 134, 135, 136
*Elset, elset=Set-6, instance=Part-1-1
 180, 208, 237, 241, 242, 251, 304, 307, 322, 394
*Nset, nset=_PickedSet26, internal, instance=Part-1-1
    1,    2,    3,    4,    5,    6,    7,    8,    9,   10,   11,   12,   13,   14,   15,   21
   22,   23,   24,   25,   26,   27,   28,   29,   30,   31,   32,   33,   34,   35,   36,   37
   38,   39,   40,   41,   42,   43,   44,   45,   46,   47,   48,   49,   50,   51,   52,   53
   54,   55,   56,   57,   58,   59,   60,   61,   62,   63,   64,   65,   66,   67,   68,   69
   70,   71,   72,   73,   74,   75,   76,   77,   78,   79,   80,   81,   82,   83,   84,   85
   86,   87,   88,   89,   90,   91,   92,   93,   94,   95,   96,   97,   98,   99,  100,  101
  102,  103,  104,  105,  106,  107,  108,  109,  110,  111,  112,  113,  114,  115,  116,  117
  118,  119,  120,  121,  122,  123,  124,  125,  126,  127,  128,  129,  130,  131,  132,  133
  134,  135,  136,  137,  138,  139,  140,  141,  142,  143,  144,  145,  146,  147,  148,  149
  150,  151,  152,  153,  154,  155,  156,  157,  158,  159,  160,  161,  162,  163,  164,  165
  166,  167,  168,  169,  170,  171,  172,  173,  174,  175,  176,  177,  178,  179,  180,  181
  182,  183,  184,  185,  186,  187,  188,  189,  190,  191,  192,  193,  194,  195,  196,  197
  198,  199,  200,  201,  202,  203,  204,  205,  206,  207,  208,  209,  210,  211,  212,  213
  214,  215,  216,  217,  218,  219,  220,  221,  222,  223,  224,  225,  226,  227,  228,  229
  230,  231,  232,  233,  234,  235,  236,  237,  238,  239,  240,  241,  242,  243,  244,  245
  246,  247,  248,  355,  356,  357,  358,  359,  360,  361,  362,  363,  364,  365,  366,  367
  368,  369,  370,  371,  372,  373,  374,  375,  376,  377,  378,  379,  380,  381,  382,  383
  384,  385,  386,  387,  388,  389,  390,  391,  392,  393,  394,  395,  396,  397,  398,  399
  400,  401,  402,  403,  404,  405,  406,  407,  408,  409,  410,  411,  412,  413,  414,  415
  416,  417,  418,  419,  420,  421,  422,  423,  424,  425,  426,  427,  428,  429,  430,  431
** ... 92 like lines cut
*Elset, elset=_PickedSet26, internal, instance=Part-1-1, generate
    1,  1680,     1
*Nset, nset=Set-1, instance=Part-1-1
   2,   3,   4,   6,   7,   8,  11,  12,  16,  17,  19,  27,  28,  29,  30,  31
  32,  33,  34,  35,  36,  37,  38,  39,  40,  41,  42,  43,  68,  69,  70,  71
  72,  73,  74,  75,  76,  77,  78,  79,  80,  81,  82,  83,  84,  85,  86,  87
  88,  89,  90,  91,  92,  93,  94,  95,  96, 151, 152, 153, 154, 155, 156, 157
 158, 159, 160, 161, 162, 163, 164, 165, 166, 167, 168, 169, 249, 250, 251, 252
 253, 254, 255, 256, 257, 258, 259, 260, 261, 292, 293, 294, 295, 296, 297, 298
 299, 300, 301, 302, 303, 304, 305, 306, 307, 308, 309, 310, 311, 312, 313, 314
 315, 316, 317, 318, 319, 320, 321, 322, 323, 324, 325, 326
*Elset, elset=Set-1, instance=Part-1-1
    8,    9,   10,   11,   12,   13,   14,   15,   30,   45,   60,   75,   90,  105,  120,  135
  150,  165,  166,  167,  168,  170,  174,  175,  176,  178,  185,  186,  189,  190,  191,  195
  201,  202,  246,  258,  262,  266,  267,  268,  269,  271,  276,  278,  279,  280,  281,  291
  292,  312,  327,  329,  333,  335,  341,  344,  786,  788,  801,  809,  810,  843,  850,  861
  862,  863,  864,  866,  867,  868,  869,  874,  875,  877,  878,  879,  880,  882,  883,  887
  888, 1009, 1018, 1026, 1036, 1045, 1046, 1047, 1048, 1083, 1084, 1085, 1086, 1087, 1088, 1089
 1090, 1091, 1092, 1093, 1095, 1096, 1097, 1098, 1099, 1100, 1145, 1150, 1152, 1153, 1215, 1681
 1682, 1685, 1691, 1695, 1696, 1736, 1737, 1738, 1739, 1740, 1742, 1747, 1750, 1751, 1752, 1753
 1754, 1755, 1756, 1757, 1758, 1760, 1761, 1769, 1771, 1772, 1777, 1778, 1786, 1788, 1797, 1798
 1799, 1811, 1812, 1815, 1822, 1824, 1829, 1830, 1846, 1851, 1853, 1886, 1916, 1919, 1965, 2146
 2147, 2148, 2149, 2161, 2167, 2168, 2171, 2173, 2175, 2177, 2178, 2179, 2180, 2182, 2183, 2184
 2185, 2186, 2188, 2190, 2191, 2192, 2193, 2194, 2195, 2197, 2199, 2202, 2204, 2219, 2223, 2234
 2235, 2236, 2237, 2238, 2239, 2243, 2251, 2252, 2254, 2255, 2257, 2275, 2276, 2277, 2278, 2555
 2556, 2557, 2559, 2560, 2561, 2562, 2564, 2565, 2566, 2567, 2568, 2569, 2570, 2571, 2572, 2573
 2574, 2577, 2578, 2579, 2580, 2581, 2582, 2583, 2585, 2586, 2588, 2590, 2592, 2595, 2596, 2600
 2601, 2602
*Nset, nset=Set-4, instance=Part-1-1
 17, 18, 20
*Nset, nset=Set-3, instance=Part-1-1
  17,  18,  20, 262, 263, 264, 265, 266, 267, 268, 269, 270, 271, 272, 273, 339
 340, 341, 342, 343, 344, 345, 346, 347, 348, 349, 350, 351, 352, 353, 354
*Elset, elset=Set-3, instance=Part-1-1
 1696, 1698, 1701, 1703, 1704, 1705, 1706, 1708, 1790, 1791, 1793, 1809, 1859, 2170, 2209, 2210
 2219, 2220, 2221, 2222, 2224, 2226, 2227, 2228, 2229, 2230, 2231, 2232, 2310, 2317
*End Assembly
** 
** MATERIALS
** 
*Material, name=Elastic
*Elastic
 1.7e+10, 0.2
*Material, name=concrete
*Damage Initiation, criterion=MAXPS, tolerance=0.1
 1.65e+06,
*Damage Evolution, type=ENERGY, mixed mode behavior=POWER LAW, power=1.
 40.293, 40.293, 40.293
*Damage Stabilization
1e-05
*Elastic, type=TRACTION
 8.5e+11, 8.5e+11, 8.5e+11
** 
** BOUNDARY CONDITIONS
** 
** Name: BC-1 Type: Displacement/Rotation
*Boundary
Set-3, 1, 1
** Name: BC-2 Type: Displacement/Rotation
*Boundary
Set-4, 2, 2
** ----------------------------------------------------------------
** 
** STEP: Step-1
** 
*Step, name=Step-1, inc=100000
*Static, stabilize=0.0002, allsdtol=0.05, continue=NO
0.005, 1., 1e-10, 0.005
** 
** BOUNDARY CONDITIONS
** 
** Name: BC-3 Type: Displacement/Rotation
*Boundary
Set-5, 2, 2, -0.005
** Name: BC-4 Type: Displacement/Rotation
*Boundary
Set-6, 2, 2, 0.005
** 
** CONTROLS
** 
*Controls, reset
*Controls, analysis=discontinuous
*Controls, parameters=time incrementation
, , , , , , , 15, , , 
** 
** OUTPUT REQUESTS
** 
*Restart, write, frequency=0
** 
** FIELD OUTPUT: F-Output-1
** 
*Output, field
*Node Output
U, 
*Element Output, directions=YES
E, S, SDEG
** 
** HISTORY OUTPUT: H-Output-1
** 
*Output, history, variable=PRESELECT
*End Step
