*Heading
** Job name: 3D-Cohesive Model name: Mode_I_multi-3D
** Generated by: Abaqus/CAE 6.12-1
*Preprint, echo=NO, model=NO, history=NO, contact=NO
**
** PARTS
**
*Part, name=Part-2
*End Part
**  
**
** ASSEMBLY
**
*Assembly, name=Assembly
**  
*Instance, name=Part-2-1, part=Part-2
*Node
      1,          -1., -0.649999976,           1.
      2,          -1., -0.200000003,           1.
      3,          -1.,         0.25,           1.
      4,          -1.,  0.699999988,           1.
      5,          -1., -0.649999976,  0.666666687
      6,          -1., -0.200000003,  0.666666687
      7,          -1.,         0.25,  0.666666687
      8,          -1.,  0.699999988,  0.666666687
      9,          -1., -0.649999976,  0.333333343
     10,          -1., -0.200000003,  0.333333343
     11,          -1.,         0.25,  0.333333343
     12,          -1.,  0.699999988,  0.333333343
     13,          -1., -0.649999976,           0.
     14,          -1., -0.200000003,           0.
     15,          -1.,         0.25,           0.
     16,          -1.,  0.699999988,           0.
     17, -0.433333337, -0.649999976,           1.
     18, -0.433333337, -0.200000003,           1.
     19, -0.433333337,         0.25,           1.
     20, -0.433333337,  0.699999988,           1.
** ... 44 like lines cut
*Element, type=C3D8R
 1, 17, 18, 22, 21,  1,  2,  6,  5
 2, 18, 19, 23, 22,  2,  3,  7,  6
 3, 19, 20, 24, 23,  3,  4,  8,  7
 4, 21, 22, 26, 25,  5,  6, 10,  9
 5, 22, 23, 27, 26,  6,  7, 11, 10
 6, 23, 24, 28, 27,  7,  8, 12, 11
 7, 25, 26, 30, 29,  9, 10, 14, 13
 8, 26, 27, 31, 30, 10, 11, 15, 14
 9, 27, 28, 32, 31, 11, 12, 16, 15
10, 33, 34, 38, 37, 17, 18, 22, 21
11, 34, 35, 39, 38, 18, 19, 23, 22
12, 35, 36, 40, 39, 19, 20, 24, 23
13, 37, 38, 42, 41, 21, 22, 26, 25
14, 38, 39, 43, 42, 22, 23, 27, 26
15, 39, 40, 44, 43, 23, 24, 28, 27
16, 41, 42, 46, 45, 25, 26, 30, 29
17, 42, 43, 47, 46, 26, 27, 31, 30
18, 43, 44, 48, 47, 27, 28, 32, 31
19, 49, 50, 54, 53, 33, 34, 38, 37
20, 50, 51, 55, 54, 34, 35, 39, 38
** ... 7 like lines cut
*Nset, nset=Set-1, generate
  1,  64,   1
*Elset, elset=Set-1, generate
  1,  27,   1
** Section: Section-1
*Solid Section, elset=Set-1, material=Elastic
1.,
*End Instance
**  
*Nset, nset=Set-1, instance=Part-2-1, generate
  1,  16,   1
*Elset, elset=Set-1, instance=Part-2-1, generate
 1,  9,  1
*Nset, nset=Set-2, instance=Part-2-1, generate
 49,  64,   1
*Elset, elset=Set-2, instance=Part-2-1, generate
 19,  27,   1
*Nset, nset=Set-3, instance=Part-2-1
 1,
*Elset, elset=_Surf-1_S1, internal, instance=Part-2-1, generate
 19,  27,   1
*Surface, type=ELEMENT, name=Surf-1
_Surf-1_S1, S1
*Elset, elset=_Surf-2_S4, internal, instance=Part-2-1, generate
  3,  27,   3
*Surface, type=ELEMENT, name=Surf-2
_Surf-2_S4, S4
*End Assembly
** 
** MATERIALS
** 
*Material, name=Elastic
*Elastic
 1.7e+10, 0.2
*Material, name=Material-3
*Elastic
 3e+10, 0.2
*Material, name=concrete
*Damage Initiation, criterion=MAXPS, tolerance=0.1
 1.65e+06,
*Damage Evolution, type=ENERGY, mixed mode behavior=POWER LAW, power=1.
 40.293, 40.293, 40.293
*Damage Stabilization
1e-05
*Elastic, type=TRACTION
 8.5e+11, 8.5e+11, 8.5e+11
** 
** BOUNDARY CONDITIONS
** 
** Name: BC-1 Type: Displacement/Rotation
*Boundary
Set-3, 1, 1
Set-3, 2, 2
Set-3, 3, 3
** Name: BC-2 Type: Displacement/Rotation
*Boundary
Set-1, 1, 1
** ----------------------------------------------------------------
** 
** STEP: Step-1
** 
*Step, name=Step-1, inc=100000
*Static, stabilize=0.0002, allsdtol=0.05, continue=NO
0.005, 1., 1e-10, 0.005
** 
** BOUNDARY CONDITIONS
** 
** Name: BC-3 Type: Displacement/Rotation
*Boundary
Set-2, 1, 1, 0.005
** 
** CONTROLS
** 
*Controls, reset
*Controls, analysis=discontinuous
*Controls, parameters=time incrementation
, , , , , , , 15, , , 
** 
** OUTPUT REQUESTS
** 
*Restart, write, frequency=0
** 
** FIELD OUTPUT: F-Output-1
** 
*Output, field
*Node Output
U, 
*Element Output, directions=YES
E, S, SDEG
** 
** HISTORY OUTPUT: H-Output-1
** 
*Output, history, variable=PRESELECT
*End Step
