*Heading
** Job name: 3D-Cohesive Model name: Mode_I_multi-3D
** Generated by: Abaqus/CAE 6.12-1
*Preprint, echo=NO, model=NO, history=NO, contact=NO
**
** PARTS
**
*Part, name=Part-2
*End Part
**  
**
** ASSEMBLY
**
*Assembly, name=Assembly
**  
*Instance, name=Part-2-1, part=Part-2
*Node
1, -1.0, -0.649999976, 1.0
2, -1.0, -0.200000003, 1.0
3, -1.0, 0.25, 1.0
4, -1.0, 0.699999988, 1.0
5, -1.0, -0.649999976, 0.666666687
6, -1.0, -0.200000003, 0.666666687
7, -1.0, 0.25, 0.666666687
8, -1.0, 0.699999988, 0.666666687
9, -1.0, -0.649999976, 0.333333343
10, -1.0, -0.200000003, 0.333333343
11, -1.0, 0.25, 0.333333343
12, -1.0, 0.699999988, 0.333333343
13, -1.0, -0.649999976, 0.0
14, -1.0, -0.200000003, 0.0
15, -1.0, 0.25, 0.0
16, -1.0, 0.699999988, 0.0
17, -0.433333337, -0.649999976, 1.0
18, -0.433333337, -0.200000003, 1.0
19, -0.433333337, 0.25, 1.0
20, -0.433333337, 0.699999988, 1.0
** ... 156 like lines cut
*Element, type=C3D8R
1, 17, 147, 148, 149, 1, 2, 6, 5 
2, 18, 110, 111, 112, 2, 3, 7, 6 
3, 19, 20, 89, 90, 3, 4, 8, 7 
4, 21, 22, 78, 25, 5, 6, 10, 9 
5, 95, 96, 97, 98, 6, 7, 11, 10 
6, 23, 24, 28, 27, 7, 8, 12, 11 
7, 103, 104, 105, 29, 9, 10, 14, 13 
8, 26, 73, 31, 30, 10, 11, 15, 14 
9, 162, 163, 32, 164, 11, 12, 16, 15 
10, 33, 34, 38, 37, 150, 153, 152, 151 
11, 83, 35, 39, 84, 113, 116, 115, 114 
12, 140, 36, 141, 142, 91, 94, 93, 92 
13, 154, 155, 156, 157, 79, 82, 81, 80 
14, 128, 129, 130, 42, 99, 102, 101, 100 
15, 117, 40, 44, 43, 65, 68, 67, 66 
16, 41, 135, 46, 45, 106, 109, 108, 107 
17, 169, 170, 171, 172, 74, 77, 76, 75 
18, 122, 123, 48, 47, 165, 168, 167, 166 
19, 49, 50, 54, 53, 69, 72, 71, 70 
20, 50, 51, 55, 54, 85, 88, 87, 86 
** ... 7 like lines cut
*Element, type=COH3D8 
28, 23, 24, 28, 27, 65, 66, 67, 68
29, 33, 34, 38, 37, 69, 70, 71, 72
30, 26, 73, 31, 30, 74, 75, 76, 77
31, 21, 22, 78, 25, 79, 80, 81, 82
32, 83, 35, 39, 84, 85, 86, 87, 88
33, 19, 20, 89, 90, 91, 92, 93, 94
34, 95, 96, 97, 98, 99, 100, 101, 102
35, 103, 104, 105, 29, 106, 107, 108, 109
36, 18, 110, 111, 112, 113, 114, 115, 116
37, 117, 40, 44, 43, 118, 119, 120, 121
38, 122, 123, 48, 47, 124, 125, 126, 127
39, 128, 129, 130, 42, 131, 132, 133, 134
40, 41, 135, 46, 45, 136, 137, 138, 139
41, 140, 36, 141, 142, 143, 144, 145, 146
42, 17, 147, 148, 149, 150, 151, 152, 153
43, 154, 155, 156, 157, 158, 159, 160, 161
44, 162, 163, 32, 164, 165, 166, 167, 168
45, 169, 170, 171, 172, 173, 174, 175, 176
*Nset, nset=Set-1, generate
1, 176, 1
*Elset, elset=Set-1, generate
1, 27, 1
*Elset, elset=CZE, generate
28, 45, 1
** Section: Section-1
*Solid Section, elset=Set-1, material=Elastic
1.,
*End Instance**  
*Nset, nset=Set-1, instance=Part-2-1, generate
1, 176, 1
  1,  16,   1
*Elset, elset=Set-1, instance=Part-2-1, generate
1, 27, 1
 1,  9,  1
*Nset, nset=Set-2, instance=Part-2-1, generate
 49,  64,   1
*Elset, elset=Set-2, instance=Part-2-1, generate
 19,  27,   1
*Nset, nset=Set-3, instance=Part-2-1
 1,
*Elset, elset=_Surf-1_S1, internal, instance=Part-2-1, generate
 19,  27,   1
*Surface, type=ELEMENT, name=Surf-1
_Surf-1_S1, S1
*Elset, elset=_Surf-2_S4, internal, instance=Part-2-1, generate
  3,  27,   3
*Surface, type=ELEMENT, name=Surf-2
_Surf-2_S4, S4
*Surface, type=ELEMENT, name=surface1
Element6, S1
*Surface, type=ELEMENT, name=surface2
Element15, S2
*Surface, type=ELEMENT, name=surface3
Element10, S1
*Surface, type=ELEMENT, name=surface4
Element19, S2
*Surface, type=ELEMENT, name=surface5
Element8, S1
*Surface, type=ELEMENT, name=surface6
Element17, S2
*Surface, type=ELEMENT, name=surface7
Element4, S1
*Surface, type=ELEMENT, name=surface8
Element13, S2
*Surface, type=ELEMENT, name=surface9
Element11, S1
*Surface, type=ELEMENT, name=surface10
Element20, S2
*Surface, type=ELEMENT, name=surface11
Element3, S1
*Surface, type=ELEMENT, name=surface12
Element12, S2
*Surface, type=ELEMENT, name=surface13
Element5, S1
*Surface, type=ELEMENT, name=surface14
Element14, S2
*Surface, type=ELEMENT, name=surface15
Element7, S1
*Surface, type=ELEMENT, name=surface16
Element16, S2
*Surface, type=ELEMENT, name=surface17
Element2, S1
*Surface, type=ELEMENT, name=surface18
Element11, S2
*Surface, type=ELEMENT, name=surface19
Element15, S1
*Surface, type=ELEMENT, name=surface20
Element24, S2
** ... 32 like lines cut
** 
** MATERIALS
** 
*Material, name=Elastic
*Elastic
 1.7e+10, 0.2
*Material, name=Material-3
*Elastic
 3e+10, 0.2
*Material, name=concrete
*Damage Initiation, criterion=MAXPS, tolerance=0.1
 1.65e+06,
*Damage Evolution, type=ENERGY, mixed mode behavior=POWER LAW, power=1.
 40.293, 40.293, 40.293
*Damage Stabilization
1e-05
*Elastic, type=TRACTION
 8.5e+11, 8.5e+11, 8.5e+11
** 
*Surface Interaction, name=IntProp-1
1.,
*Friction
0.,
*Surface Behavior, pressure-overclosure=HARD
*Contact Pair, interaction=IntProp-1, small sliding, type=SURFACE TO SURFACE, adjust=0.0
surface1, surface2
*Contact Pair, interaction=IntProp-1, small sliding, type=SURFACE TO SURFACE, adjust=0.0
surface3, surface4
*Contact Pair, interaction=IntProp-1, small sliding, type=SURFACE TO SURFACE, adjust=0.0
surface5, surface6
*Contact Pair, interaction=IntProp-1, small sliding, type=SURFACE TO SURFACE, adjust=0.0
surface7, surface8
*Contact Pair, interaction=IntProp-1, small sliding, type=SURFACE TO SURFACE, adjust=0.0
surface9, surface10
*Contact Pair, interaction=IntProp-1, small sliding, type=SURFACE TO SURFACE, adjust=0.0
surface11, surface12
*Contact Pair, interaction=IntProp-1, small sliding, type=SURFACE TO SURFACE, adjust=0.0
surface13, surface14
*Contact Pair, interaction=IntProp-1, small sliding, type=SURFACE TO SURFACE, adjust=0.0
surface15, surface16
*Contact Pair, interaction=IntProp-1, small sliding, type=SURFACE TO SURFACE, adjust=0.0
surface17, surface18
*Contact Pair, interaction=IntProp-1, small sliding, type=SURFACE TO SURFACE, adjust=0.0
surface19, surface20
*Contact Pair, interaction=IntProp-1, small sliding, type=SURFACE TO SURFACE, adjust=0.0
surface21, surface22
*Contact Pair, interaction=IntProp-1, small sliding, type=SURFACE TO SURFACE, adjust=0.0
surface23, surface24
*Contact Pair, interaction=IntProp-1, small sliding, type=SURFACE TO SURFACE, adjust=0.0
surface25, surface26
*Contact Pair, interaction=IntProp-1, small sliding, type=SURFACE TO SURFACE, adjust=0.0
surface27, surface28
*Contact Pair, interaction=IntProp-1, small sliding, type=SURFACE TO SURFACE, adjust=0.0
surface29, surface30
*Contact Pair, interaction=IntProp-1, small sliding, type=SURFACE TO SURFACE, adjust=0.0
surface31, surface32
*Contact Pair, interaction=IntProp-1, small sliding, type=SURFACE TO SURFACE, adjust=0.0
surface33, surface34
*Contact Pair, interaction=IntProp-1, small sliding, type=SURFACE TO SURFACE, adjust=0.0
surface35, surface36
** 
** Name: BC-1 Type: Displacement/Rotation
*Boundary
Set-3, 1, 1
Set-3, 2, 2
Set-3, 3, 3
** Name: BC-2 Type: Displacement/Rotation
*Boundary
Set-1, 1, 1
** ----------------------------------------------------------------
** 
** STEP: Step-1
** 
*Step, name=Step-1, inc=100000
*Static, stabilize=0.0002, allsdtol=0.05, continue=NO
0.005, 1., 1e-10, 0.005
** 
** BOUNDARY CONDITIONS
** 
** Name: BC-3 Type: Displacement/Rotation
*Boundary
Set-2, 1, 1, 0.005
** 
** CONTROLS
** 
*Controls, reset
*Controls, analysis=discontinuous
*Controls, parameters=time incrementation
, , , , , , , 15, , , 
** 
** OUTPUT REQUESTS
** 
*Restart, write, frequency=0
** 
** FIELD OUTPUT: F-Output-1
** 
*Output, field
*Node Output
U, 
*Element Output, directions=YES
E, S, SDEG
** 
** HISTORY OUTPUT: H-Output-1
** 
*Output, history, variable=PRESELECT
*End Step
